/*--------------------------------*- C++ -*----------------------------------*\
| =========                 |                                                 |
| \\      /  F ield         | OpenFOAM: The Open Source CFD Toolbox           |
|  \\    /   O peration     | Version:  1.7.1                                 |
|   \\  /    A nd           | Web:      www.OpenFOAM.com                      |
|    \\/     M anipulation  |                                                 |
\*---------------------------------------------------------------------------*/
FoamFile
{
    version     2.0;
    format      ascii;
    class       dictionary;
    object      changeDictionaryDict;
}
// * * * * * * * * * * * * * * * * * * * * * * * * * * * * * * * * * * * * * //

dictionaryReplacement
{
    boundary
    {
    }

    T
    {
        internalField   uniform 300;

        boundaryField
        {
            ".*_to_.*"
            {
                type            compressible::turbulentTemperatureCoupledBaffleMixed;
                neighbourFieldName T;
                K               K;
                value           uniform 300;
            }
            "(.*wall.*|.*Wall.*)"
            {
                type fixedValue;
                value uniform 300;
            }
        }
    }

    rho
    {
        internalField   uniform 8000;

        boundaryField
        {
            "(.*_to_.*|.*wall.*|.*Wall.*)"
            {
                type fixedValue;
                value uniform 8000;
            }
        }
    }

    K
    {
        internalField   uniform 80;

        boundaryField
        {
            ".*"
            {
                type            zeroGradient;
                value           uniform 80;
            }
        }
    }

    cp
    {
        internalField   uniform 450;

        boundaryField
        {
            ".*"
            {
                type            zeroGradient;
                value           uniform 450;
            }
        }
    }
}

// ************************************************************************* //
