/*--------------------------------*- C++ -*----------------------------------*\
| =========                 |                                                 |
| \\      /  F ield         | OpenFOAM: The Open Source CFD Toolbox           |
|  \\    /   O peration     | Version:  1.7.x                                 |
|   \\  /    A nd           | Web:      www.OpenFOAM.com                      |
|    \\/     M anipulation  |                                                 |
\*---------------------------------------------------------------------------*/
FoamFile
{
    version     2.0;
    format      ascii;
    class       volScalarField;
    location    "0";
    object      mut;
}
// * * * * * * * * * * * * * * * * * * * * * * * * * * * * * * * * * * * * * //

dimensions      [ 1 -1 -1 0 0 0 0 ];

internalField   uniform 0;

boundaryField
{
    channelWalls
    {
        type            mutWallFunction;
        value           uniform 0;
    }
    inlet
    {
        type            calculated;
        value           uniform 0;
    }
    outlet
    {
        type            calculated;
        value           uniform 0;
    }
    topWalls
    {
        type            mutWallFunction;
        value           uniform 0;
    }
    outerWalls
    {
        type            mutWallFunction;
        value           uniform 0;
    }
    tankWalls
    {
        type            mutWallFunction;
        value           uniform 0;
    }
    fluidVolume_to_solidVolume
    {
        type            mutWallFunction;
        value           uniform 0;
    }
}


// ************************************************************************* //
