/*--------------------------------*- C++ -*----------------------------------*\
| =========                 |                                                 |
| \\      /  F ield         | OpenFOAM: The Open Source CFD Toolbox           |
|  \\    /   O peration     | Version:  1.7.1                                 |
|   \\  /    A nd           | Web:      www.OpenFOAM.com                      |
|    \\/     M anipulation  |                                                 |
\*---------------------------------------------------------------------------*/
FoamFile
{
    version     2.0;
    format      ascii;
    class       dictionary;
    location    "system";
    object      controlDict;
}
// * * * * * * * * * * * * * * * * * * * * * * * * * * * * * * * * * * * * * //

application     porousIterativeMultiregionFoam;

startFrom       latestTime;

startTime       0;

stopAt          endTime;

endTime         200;

deltaT          5e-6;

writeControl    timeStep;

writeInterval   100;

purgeWrite      0;

writeFormat     ascii;

writePrecision  8;

writeCompression uncompressed;

timeFormat      general;

timePrecision   6;

runTimeModifiable yes;

maxCo           0.9;

// Maximum diffusion number
maxDi           1.0;

adjustTimeStep  no;

libs
(
    "libOpenFOAM.so"
    "libcompressibleTurbulenceModel.so"
    "libcompressibleRASModels.so"
);

// ************************************************************************* //
