/*--------------------------------*- C++ -*----------------------------------*\
| =========                 |                                                 |
| \\      /  F ield         | OpenFOAM: The Open Source CFD Toolbox           |
|  \\    /   O peration     | Version:  1.7.1                                 |
|   \\  /    A nd           | Web:      www.OpenFOAM.com                      |
|    \\/     M anipulation  |                                                 |
\*---------------------------------------------------------------------------*/
FoamFile
{
    version     2.0;
    format      ascii;
    class       dictionary;
    object      fvSolution;
}
// * * * * * * * * * * * * * * * * * * * * * * * * * * * * * * * * * * * * * //

solvers
{
    "(rho|G)"
    {
        solver          PCG;
        tolerance       1e-12;
        relTol          0;
    }

    "(p|p_rgh|p_rghFinal)"
    {
        solver           GAMG;
        tolerance        1e-8;
        relTol           0;
        nPreSweeps       0;
        nPostSweeps      1;
        smoother         DICGaussSeidel;
        cacheAgglomeration true;
        nCellsInCoarsestLevel 10;
        agglomerator     faceAreaPair;
        mergeLevels      1;
        maxIter          20;
    }
    pFinal
    {
        $p;
        tolerance 1e-8;
        maxIter 20;
    }
    "(U|k|omega|R|epsilon)"
    {
        solver smoothSolver;
        smoother      GaussSeidel;
        nSweeps       2;
        tolerance     1e-12;
        relTol        0;
        maxIter       20;
    }
    "(h|hFinal)"
    {
        solver smoothSolver;
        smoother      GaussSeidel;
        nSweeps       2;
        tolerance     1e-7;
        relTol        0;
        maxIter       20;
    }
}

PIMPLE
{
    momentumPredictor   yes;
    nCorrectors         4;
    nNonOrthogonalCorrectors 2;
}
relaxationFactors
{
    p               1;
    U               1;
}

// ************************************************************************* //
