/*--------------------------------*- C++ -*----------------------------------*\
| =========                 |                                                 |
| \\      /  F ield         | OpenFOAM: The Open Source CFD Toolbox           |
|  \\    /   O peration     | Version:  1.7.1                                 |
|   \\  /    A nd           | Web:      www.OpenFOAM.com                      |
|    \\/     M anipulation  |                                                 |
\*---------------------------------------------------------------------------*/
FoamFile
{
    version     2.0;
    format      ascii;
    class       dictionary;
    object      fvSolution;
}
// * * * * * * * * * * * * * * * * * * * * * * * * * * * * * * * * * * * * * //

solvers
{
    "(rho|G)"
    {
        solver          PCG;
        tolerance       1e-12;
        relTol          0;
    }

    p
    {
        solver           GAMG;
        tolerance        1e-8;
        relTol           0;
        nPreSweeps       0;
        nPostSweeps      1;
        smoother         DICGaussSeidel;
        cacheAgglomeration true;
        nCellsInCoarsestLevel 10;
        agglomerator     faceAreaPair;
        mergeLevels      1;
        maxIter          40;
    }
/*
    p
    {
        solver PCG;
        preconditioner DIC;
        tolerance 1e-6;
        relTol 0;
        maxIter 20;
    }*/
    pFinal
    {
        $p;
        tolerance 1e-8;
        maxIter 30;
    }
    /*
    "(U|Yj)"
    {
        solver smoothSolver;
        smoother      DILUGaussSeidel;
        nSweeps       20;
        tolerance     1e-7;
        relTol        0;
        maxIter       20;
    }*/
    "(U|Yj|hs|k|omega|R)"
    {
        solver GAMG;
        smoother GaussSeidel;
        nPreSweeps       0;
        nPostSweeps      1;
        tolerance        1e-9;
        relTol           0;
        cacheAgglomeration true;
        nCellsInCoarsestLevel 10;
        agglomerator     faceAreaPair;
        mergeLevels      1;
        maxIter          20;
    }
/*
    "(U|hs|k|omega|R)"
    {
        solver PBiCG;
        preconditioner DILU;
        tolerance        1e-7;
        relTol           0;
        maxIter          25;
    }
*/
    /*
    "(k|omega)"
    {
        solver PBiCG;
        preconditioner DILU;
        tolerance 1e-8;
        relTol 0;
        maxIter 1000;
    }
    */
}

PIMPLE
{
    momentumPredictor   yes;
    nCorrectors         2;
    nNonOrthogonalCorrectors 2;
    solveSpecies false;
}

relaxationFactors
{
    hs              0.6;
    U               0.9;
    k               0.9;
    epsilon         0.9;
    omega           0.9;
    mut             1.0;
    p               0.9;
}

// ************************************************************************* //
