/*--------------------------------*- C++ -*----------------------------------*\
| =========                 |                                                 |
| \\      /  F ield         | OpenFOAM: The Open Source CFD Toolbox           |
|  \\    /   O peration     | Version:  1.7.1                                 |
|   \\  /    A nd           | Web:      www.OpenFOAM.com                      |
|    \\/     M anipulation  |                                                 |
\*---------------------------------------------------------------------------*/
FoamFile
{
    version     2.0;
    format      ascii;
    class       volScalarField;
    location    "0";
    object      omega;
}
// * * * * * * * * * * * * * * * * * * * * * * * * * * * * * * * * * * * * * //

dimensions      [0 0 -1 0 0 0 0];

internalField   uniform 1;

boundaryField
{
    ".*Walls.*"
    {
        type            compressible::omegaWallFunction;
        value           uniform 1;
    }
    inlet
    {
        type fixedValue;
        value uniform 1;
    }
    outlet
    {
        type inletOutlet;
        inletValue uniform 1;
    }
    frontAndBackPlanes
    {
        type empty;
    }
}


// ************************************************************************* //
